PV_50.txt
!Edit Vsource.Source BasekV=11 pu=1 ISC3=3000 ISC1=1500

New generator.PV1 Phases=1 Bus1=34.1 kV=0.23 kW=1 PF=1 model=1 status=variable Yearly=PV_1
New generator.PV2 Phases=1 Bus1=47.2 kV=0.23 kW=1 PF=1 model=1 status=variable Yearly=PV_2
!New generator.PV3 Phases=1 Bus1=70.1 kV=0.23 kW=1 PF=1 model=1 status=variable Yearly=PV_3
!New generator.PV4 Phases=1 Bus1=73.1 kV=0.23 kW=1 PF=1 model=1 status=variable Yearly=PV_4
New generator.PV5 Phases=1 Bus1=74.1 kV=0.23 kW=1 PF=1 model=1 status=variable Yearly=PV_5
New generator.PV6 Phases=1 Bus1=83.2 kV=0.23 kW=1 PF=1 model=1 status=variable Yearly=PV_6
!New generator.PV7 Phases=1 Bus1=178.2 kV=0.23 kW=1 PF=1 model=1 status=variable Yearly=PV_7
!New generator.PV8 Phases=1 Bus1=208.3 kV=0.23 kW=1 PF=1 model=1 status=variable Yearly=PV_8
!New generator.PV9 Phases=1 Bus1=225.1 kV=0.23 kW=1 PF=1 model=1 status=variable Yearly=PV_9
!New generator.PV10 Phases=1 Bus1=248.2 kV=0.23 kW=1 PF=1 model=1 status=variable Yearly=PV_10
!New generator.PV11 Phases=1 Bus1=249.2 kV=0.23 kW=1 PF=1 model=1 status=variable Yearly=PV_11
!New generator.PV12 Phases=1 Bus1=264.3 kV=0.23 kW=1 PF=1 model=1 status=variable Yearly=PV_12
!New generator.PV13 Phases=1 Bus1=276.2 kV=0.23 kW=1 PF=1 model=1 status=variable Yearly=PV_13
!New generator.PV14 Phases=1 Bus1=289.1 kV=0.23 kW=1 PF=1 model=1 status=variable Yearly=PV_14
New generator.PV15 Phases=1 Bus1=314.2 kV=0.23 kW=1 PF=1 model=1 status=variable Yearly=PV_15
New generator.PV16 Phases=1 Bus1=320.3 kV=0.23 kW=1 PF=1 model=1 status=variable Yearly=PV_16
!New generator.PV17 Phases=1 Bus1=327.3 kV=0.23 kW=1 PF=1 model=1 status=variable Yearly=PV_17
New generator.PV18 Phases=1 Bus1=337.3 kV=0.23 kW=1 PF=1 model=1 status=variable Yearly=PV_18
New generator.PV19 Phases=1 Bus1=342.3 kV=0.23 kW=1 PF=1 model=1 status=variable Yearly=PV_19
New generator.PV20 Phases=1 Bus1=349.1 kV=0.23 kW=1 PF=1 model=1 status=variable Yearly=PV_20
!New generator.PV21 Phases=1 Bus1=387.1 kV=0.23 kW=1 PF=1 model=1 status=variable Yearly=PV_21
!New generator.PV22 Phases=1 Bus1=388.1 kV=0.23 kW=1 PF=1 model=1 status=variable Yearly=PV_22
!New generator.PV23 Phases=1 Bus1=406.2 kV=0.23 kW=1 PF=1 model=1 status=variable Yearly=PV_23
New generator.PV24 Phases=1 Bus1=458.3 kV=0.23 kW=1 PF=1 model=1 status=variable Yearly=PV_24
!New generator.PV25 Phases=1 Bus1=502.1 kV=0.23 kW=1 PF=1 model=1 status=variable Yearly=PV_25
!New generator.PV26 Phases=1 Bus1=522.2 kV=0.23 kW=1 PF=1 model=1 status=variable Yearly=PV_26
New generator.PV27 Phases=1 Bus1=539.3 kV=0.23 kW=1 PF=1 model=1 status=variable Yearly=PV_27
!New generator.PV28 Phases=1 Bus1=556.3 kV=0.23 kW=1 PF=1 model=1 status=variable Yearly=PV_28
New generator.PV29 Phases=1 Bus1=562.1 kV=0.23 kW=1 PF=1 model=1 status=variable Yearly=PV_29
New generator.PV30 Phases=1 Bus1=563.1 kV=0.23 kW=1 PF=1 model=1 status=variable Yearly=PV_30
!New generator.PV31 Phases=1 Bus1=611.1 kV=0.23 kW=1 PF=1 model=1 status=variable Yearly=PV_31
New generator.PV32 Phases=1 Bus1=614.3 kV=0.23 kW=1 PF=1 model=1 status=variable Yearly=PV_32
New generator.PV33 Phases=1 Bus1=619.3 kV=0.23 kW=1 PF=1 model=1 status=variable Yearly=PV_33
New generator.PV34 Phases=1 Bus1=629.1 kV=0.23 kW=1 PF=1 model=1 status=variable Yearly=PV_34
New generator.PV35 Phases=1 Bus1=639.2 kV=0.23 kW=1 PF=1 model=1 status=variable Yearly=PV_35
New generator.PV36 Phases=1 Bus1=676.2 kV=0.23 kW=1 PF=1 model=1 status=variable Yearly=PV_36
New generator.PV37 Phases=1 Bus1=682.2 kV=0.23 kW=1 PF=1 model=1 status=variable Yearly=PV_37
New generator.PV38 Phases=1 Bus1=688.2 kV=0.23 kW=1 PF=1 model=1 status=variable Yearly=PV_38
New generator.PV39 Phases=1 Bus1=701.3 kV=0.23 kW=1 PF=1 model=1 status=variable Yearly=PV_39
!New generator.PV40 Phases=1 Bus1=702.2 kV=0.23 kW=1 PF=1 model=1 status=variable Yearly=PV_40
New generator.PV41 Phases=1 Bus1=755.2 kV=0.23 kW=1 PF=1 model=1 status=variable Yearly=PV_41
New generator.PV42 Phases=1 Bus1=778.3 kV=0.23 kW=1 PF=1 model=1 status=variable Yearly=PV_42
!New generator.PV43 Phases=1 Bus1=780.3 kV=0.23 kW=1 PF=1 model=1 status=variable Yearly=PV_43
New generator.PV44 Phases=1 Bus1=785.2 kV=0.23 kW=1 PF=1 model=1 status=variable Yearly=PV_44
New generator.PV45 Phases=1 Bus1=813.2 kV=0.23 kW=1 PF=1 model=1 status=variable Yearly=PV_45
!New generator.PV46 Phases=1 Bus1=817.1 kV=0.23 kW=1 PF=1 model=1 status=variable Yearly=PV_46
!New generator.PV47 Phases=1 Bus1=835.3 kV=0.23 kW=1 PF=1 model=1 status=variable Yearly=PV_47
!New generator.PV48 Phases=1 Bus1=860.1 kV=0.23 kW=1 PF=1 model=1 status=variable Yearly=PV_48
!New generator.PV49 Phases=1 Bus1=861.1 kV=0.23 kW=1 PF=1 model=1 status=variable Yearly=PV_49
New generator.PV50 Phases=1 Bus1=886.2 kV=0.23 kW=1 PF=1 model=1 status=variable Yearly=PV_50
!New generator.PV51 Phases=1 Bus1=896.1 kV=0.23 kW=1 PF=1 model=1 status=variable Yearly=PV_51
!New generator.PV52 Phases=1 Bus1=898.1 kV=0.23 kW=1 PF=1 model=1 status=variable Yearly=PV_52
!New generator.PV53 Phases=1 Bus1=899.2 kV=0.23 kW=1 PF=1 model=1 status=variable Yearly=PV_53
!New generator.PV54 Phases=1 Bus1=900.1 kV=0.23 kW=1 PF=1 model=1 status=variable Yearly=PV_54
New generator.PV55 Phases=1 Bus1=906.1 kV=0.23 kW=1 PF=1 model=1 status=variable Yearly=PV_55